3OO5_NTE_A_142
  RCSB PDB01161500443D
Coordinates from PDB:3OO5:A:142 Model:1 without hydrogens
 46 53  0  0  0  0            999 V2000
   12.0130    0.8350   13.8960   N 0  0  0  0  0  0  0  0  0  0  0  0
   13.5080    1.7780   15.0020   S 0  0  0  0  0  0  0  0  0  0  0  0
    8.4660    8.4330   11.8940   O 0  5  0  0  0  0  0  0  0  0  0  0
    7.9440    6.3790   11.7140   O 0  0  0  0  0  0  0  0  0  0  0  0
   14.8990    2.7360   16.2420   N 0  0  0  0  0  0  0  0  0  0  0  0
   12.6260    3.6390   14.6120   N 0  0  0  0  0  0  0  0  0  0  0  0
    8.6910    7.2610   12.1350   N 0  3  0  0  0  0  0  0  0  0  0  0
   14.3210   -0.0810   15.5040   N 0  0  0  0  0  0  0  0  0  0  0  0
   15.9140    2.1390   16.8740   C 0  0  0  0  0  0  0  0  0  0  0  0
   20.1500    2.3850   19.8700   O 0  0  0  0  0  0  0  0  0  0  0  0
   12.9750    4.8300   15.1450   C 0  0  0  0  0  0  0  0  0  0  0  0
   11.0690    1.4550   13.1790   C 0  0  0  0  0  0  0  0  0  0  0  0
   13.8110   -1.2740   15.1790   C 0  0  0  0  0  0  0  0  0  0  0  0
   17.2740   -2.6390   20.6370   O 0  0  0  0  0  0  0  0  0  0  0  0
   16.6830    3.1160   17.6930   C 0  0  0  0  0  0  0  0  0  0  0  0
   21.4980    3.0260   18.2450   O 0  0  0  0  0  0  0  0  0  0  0  0
   12.1160    5.9230   14.6290   C 0  0  0  0  0  0  0  0  0  0  0  0
   10.1550    0.4740   12.5340   C 0  0  0  0  0  0  0  0  0  0  0  0
   14.6430   -2.3690   15.7390   C 0  0  0  0  0  0  0  0  0  0  0  0
   17.7700   -4.2890   19.2590   O 0  0  0  0  0  0  0  0  0  0  0  0
   16.0400    4.3220   17.5060   C 0  0  0  0  0  0  0  0  0  0  0  0
   11.2570    5.2940   13.7490   C 0  0  0  0  0  0  0  0  0  0  0  0
   10.6260   -0.7650   12.9680   C 0  0  0  0  0  0  0  0  0  0  0  0
   15.6840   -1.7430   16.3960   C 0  0  0  0  0  0  0  0  0  0  0  0
   14.9170    4.0320   16.5730   C 0  0  0  0  0  0  0  0  0  0  0  0
   11.6150    3.8550   13.7780   C 0  0  0  0  0  0  0  0  0  0  0  0
   11.8130   -0.4830   13.8100   C 0  0  0  0  0  0  0  0  0  0  0  0
   15.4190   -0.2830   16.2280   C 0  0  0  0  0  0  0  0  0  0  0  0
   17.8930    2.8060   18.5570   C 0  0  0  0  0  0  0  0  0  0  0  0
   10.1290    5.7380   12.8960   C 0  0  0  0  0  0  0  0  0  0  0  0
   10.1980   -2.1710   12.7120   C 0  0  0  0  0  0  0  0  0  0  0  0
   16.8170   -2.3970   17.1750   C 0  0  0  0  0  0  0  0  0  0  0  0
   19.1630    3.3430   17.9040   C 0  0  0  0  0  0  0  0  0  0  0  0
    9.6840    6.9690   12.8650   C 0  0  0  0  0  0  0  0  0  0  0  0
    8.9560   -2.5390   12.9780   C 0  0  0  0  0  0  0  0  0  0  0  0
   16.1930   -2.6730   18.5330   C 0  0  0  0  0  0  0  0  0  0  0  0
   20.3520    2.8860   18.7330   C 0  0  0  0  0  0  0  0  0  0  0  0
   17.1600   -3.2310   19.5410   C 0  0  0  0  0  0  0  0  0  0  0  0
   16.3100    0.7190   16.8380   C 0  0  0  0  0  0  0  0  0  0  0  0
   14.0270    5.1290   16.1490   C 0  0  0  0  0  0  0  0  0  0  0  0
   10.8700    2.8950   12.9500   C 0  0  0  0  0  0  0  0  0  0  0  0
   12.5840   -1.5880   14.4210   C 0  0  0  0  0  0  0  0  0  0  0  0
   16.3650    5.6750   18.0900   C 0  0  0  0  0  0  0  0  0  0  0  0
   12.1940    7.3830   14.9840   C 0  0  0  0  0  0  0  0  0  0  0  0
    8.9860    0.8110   11.6480   C 0  0  0  0  0  0  0  0  0  0  0  0
   14.3860   -3.8420   15.5870   C 0  0  0  0  0  0  0  0  0  0  0  0
  1  2  1  0  0  0  0
  1 12  1  0  0  0  0
  1 27  1  0  0  0  0
  2  5  1  0  0  0  0
  2  6  1  0  0  0  0
  2  8  1  0  0  0  0
  3  7  1  0  0  0  0
  4  7  2  0  0  0  0
  5  9  1  0  0  0  0
  5 25  1  0  0  0  0
  6 11  1  0  0  0  0
  6 26  2  0  0  0  0
  7 34  1  0  0  0  0
  8 13  2  0  0  0  0
  8 28  1  0  0  0  0
  9 15  2  0  0  0  0
  9 39  1  0  0  0  0
 10 37  1  0  0  0  0
 11 17  1  0  0  0  0
 11 40  2  0  0  0  0
 12 18  1  0  0  0  0
 12 41  2  0  0  0  0
 13 19  1  0  0  0  0
 13 42  1  0  0  0  0
 14 38  2  0  0  0  0
 15 21  1  0  0  0  0
 15 29  1  0  0  0  0
 16 37  2  0  0  0  0
 17 22  2  0  0  0  0
 17 44  1  0  0  0  0
 18 23  2  0  0  0  0
 18 45  1  0  0  0  0
 19 24  2  0  0  0  0
 19 46  1  0  0  0  0
 20 38  1  0  0  0  0
 21 25  2  0  0  0  0
 21 43  1  0  0  0  0
 22 26  1  0  0  0  0
 22 30  1  0  0  0  0
 23 27  1  0  0  0  0
 23 31  1  0  0  0  0
 24 28  1  0  0  0  0
 24 32  1  0  0  0  0
 25 40  1  0  0  0  0
 26 41  1  0  0  0  0
 27 42  2  0  0  0  0
 28 39  2  0  0  0  0
 29 33  1  0  0  0  0
 30 34  2  0  0  0  0
 31 35  2  0  0  0  0
 32 36  1  0  0  0  0
 33 37  1  0  0  0  0
 36 38  1  0  0  0  0
M  END
